goiania_leste_dss/TR3/CTMT_5002412.dss
! ==============================================================================
! ALIMENTADOR CTMT_5002412 - GOIANIA LESTE-4
! Subestacao: Trafo TR3 (GOL-S-TRF-TR3) | Barra MT: 4630 -> PAC_INI: 84799275002412
! ==============================================================================

! 1. Disjuntor de Saida MT do Alimentador
new line.DJ_5002412 phases=3 bus1=4630 bus2=84799275002412 switch=y r1=1e-4 x1=1e-4 length=0.001 units=km

! 2. Linhas de Media Tensao (MT)
new line.52773432 phases=3 bus1=79659305002412.1.2.3 bus2=79659295002412.1.2.3 r1=0.975 x1=0.47 length=0.007341 units=km normamps=152.0
new line.52875515 phases=3 bus1=80450335002412.1.2.3 bus2=80450325002412.1.2.3 r1=0.975 x1=0.47 length=0.038055 units=km normamps=152.0
new line.52875516 phases=3 bus1=80450345002412.1.2.3 bus2=80450335002412.1.2.3 r1=0.975 x1=0.47 length=0.039924 units=km normamps=152.0
new line.52875524 phases=3 bus1=80450355002412.1.2.3 bus2=80450345002412.1.2.3 r1=0.975 x1=0.47 length=0.03184 units=km normamps=152.0
new line.52875525 phases=3 bus1=80450365002412.1.2.3 bus2=80450355002412.1.2.3 r1=0.975 x1=0.47 length=0.042715 units=km normamps=152.0
new line.52875526 phases=3 bus1=80450375002412.1.2.3 bus2=80450365002412.1.2.3 r1=0.975 x1=0.47 length=0.032538 units=km normamps=152.0
new line.52875527 phases=3 bus1=80450405002412.1.2.3 bus2=80450375002412.1.2.3 r1=0.975 x1=0.47 length=0.043407 units=km normamps=152.0
new line.52875528 phases=3 bus1=80450415002412.1.2.3 bus2=80450405002412.1.2.3 r1=0.975 x1=0.47 length=0.032545 units=km normamps=152.0
new line.52875529 phases=3 bus1=80450425002412.1.2.3 bus2=80450415002412.1.2.3 r1=0.975 x1=0.47 length=0.046291 units=km normamps=152.0
new line.52875530 phases=3 bus1=80450435002412.1.2.3 bus2=80450425002412.1.2.3 r1=0.975 x1=0.47 length=0.037599 units=km normamps=152.0
new line.52875531 phases=3 bus1=80450445002412.1.2.3 bus2=80450435002412.1.2.3 r1=0.975 x1=0.47 length=0.007056 units=km normamps=152.0
new line.52875532 phases=3 bus1=80450455002412.1.2.3 bus2=80450435002412.1.2.3 r1=0.975 x1=0.47 length=0.023872 units=km normamps=152.0
new line.52875533 phases=3 bus1=80450455002412.1.2.3 bus2=80450465002412.1.2.3 r1=1.551 x1=0.49 length=0.020451 units=km normamps=114.0
new line.52875534 phases=3 bus1=80450465002412.1.2.3 bus2=80450475002412.1.2.3 r1=1.551 x1=0.49 length=0.039767 units=km normamps=114.0
new line.52875535 phases=3 bus1=80450485002412.1.2.3 bus2=80450475002412.1.2.3 r1=1.551 x1=0.49 length=0.007056 units=km normamps=114.0
new line.52875536 phases=3 bus1=80450505002412.1.2.3 bus2=80450455002412.1.2.3 r1=0.975 x1=0.47 length=0.0311 units=km normamps=152.0
new line.52875537 phases=3 bus1=80450515002412.1.2.3 bus2=80450505002412.1.2.3 r1=0.975 x1=0.47 length=0.031092 units=km normamps=152.0
new line.52875538 phases=3 bus1=80450525002412.1.2.3 bus2=80450515002412.1.2.3 r1=0.975 x1=0.47 length=0.039827 units=km normamps=152.0
new line.52875539 phases=3 bus1=80450535002412.1.2.3 bus2=80450525002412.1.2.3 r1=0.975 x1=0.47 length=0.032603 units=km normamps=152.0
new line.52875540 phases=3 bus1=80450545002412.1.2.3 bus2=80450535002412.1.2.3 r1=0.975 x1=0.47 length=0.011659 units=km normamps=152.0
new line.52875541 phases=3 bus1=80450555002412.1.2.3 bus2=80450545002412.1.2.3 r1=0.975 x1=0.47 length=0.026654 units=km normamps=152.0
new line.52875543 phases=3 bus1=80450695002412.1.2.3 bus2=80450705002412.1.2.3 r1=0.236 x1=0.27 length=0.04139 units=km normamps=456.0
new line.52875544 phases=3 bus1=80450705002412.1.2.3 bus2=80450745002412.1.2.3 r1=0.236 x1=0.27 length=0.036518 units=km normamps=456.0
new line.52875545 phases=3 bus1=80450745002412.1.2.3 bus2=80450755002412.1.2.3 r1=0.236 x1=0.27 length=0.029313 units=km normamps=456.0
new line.52875546 phases=3 bus1=80450755002412.1.2.3 bus2=80450765002412.1.2.3 r1=0.236 x1=0.27 length=0.044826 units=km normamps=456.0
new line.52875547 phases=3 bus1=80450765002412.1.2.3 bus2=80449865002412.1.2.3 r1=0.236 x1=0.27 length=0.026785 units=km normamps=456.0
new line.52875565 phases=3 bus1=80450975002412B.1.2.3 bus2=80450985002412.1.2.3 r1=0.236 x1=0.27 length=0.03036 units=km normamps=456.0
new line.52875566 phases=3 bus1=80450985002412.1.2.3 bus2=80449855002412.1.2.3 r1=0.236 x1=0.27 length=0.011779 units=km normamps=456.0
new line.52875570 phases=3 bus1=80450325002412.1.2.3 bus2=80449875002412B.1.2.3 r1=0.732 x1=0.31 length=0.018434 units=km normamps=225.0
new line.52875571 phases=3 bus1=80450545002412.1.2.3 bus2=80450595002412.1.2.3 r1=0.975 x1=0.47 length=0.039152 units=km normamps=152.0
new line.52875572 phases=3 bus1=80450595002412.1.2.3 bus2=80450605002412.1.2.3 r1=0.975 x1=0.47 length=0.007056 units=km normamps=152.0
new line.52875573 phases=3 bus1=80448605002412.1.2.3 bus2=80451065002412.1.2.3 r1=0.975 x1=0.47 length=0.013262 units=km normamps=152.0
new line.52875575 phases=3 bus1=80448065002412.1.2.3 bus2=80448075002412.1.2.3 r1=1.551 x1=0.49 length=0.034827 units=km normamps=114.0
new line.52875576 phases=3 bus1=80448075002412.1.2.3 bus2=80448085002412.1.2.3 r1=1.551 x1=0.49 length=0.036939 units=km normamps=114.0
new line.52875577 phases=3 bus1=80448085002412.1.2.3 bus2=80448095002412.1.2.3 r1=1.551 x1=0.49 length=0.033989 units=km normamps=114.0
new line.52875578 phases=3 bus1=80448095002412.1.2.3 bus2=80448105002412.1.2.3 r1=1.551 x1=0.49 length=0.037624 units=km normamps=114.0
new line.52875579 phases=3 bus1=80448105002412.1.2.3 bus2=80448115002412.1.2.3 r1=1.551 x1=0.49 length=0.028958 units=km normamps=114.0
new line.52875580 phases=3 bus1=80448115002412.1.2.3 bus2=80448125002412.1.2.3 r1=1.551 x1=0.49 length=0.029647 units=km normamps=114.0
new line.52875581 phases=3 bus1=80448125002412.1.2.3 bus2=80448135002412.1.2.3 r1=1.551 x1=0.49 length=0.024626 units=km normamps=114.0
new line.52875582 phases=3 bus1=80448135002412.1.2.3 bus2=80448145002412.1.2.3 r1=1.551 x1=0.49 length=0.042776 units=km normamps=114.0
new line.52875583 phases=3 bus1=80448175002412.1.2.3 bus2=80448145002412.1.2.3 r1=1.551 x1=0.49 length=0.028437 units=km normamps=114.0
new line.52875584 phases=3 bus1=80448185002412.1.2.3 bus2=80448175002412.1.2.3 r1=1.551 x1=0.49 length=0.02861 units=km normamps=114.0
new line.52875585 phases=3 bus1=80448205002412.1.2.3 bus2=80448185002412.1.2.3 r1=0.975 x1=0.47 length=0.01244 units=km normamps=152.0
new line.52875586 phases=3 bus1=80448215002412.1.2.3 bus2=80448205002412.1.2.3 r1=0.975 x1=0.47 length=0.029098 units=km normamps=152.0
new line.52875587 phases=3 bus1=80448225002412.1.2.3 bus2=80448215002412.1.2.3 r1=0.975 x1=0.47 length=0.021092 units=km normamps=152.0
new line.52875589 phases=3 bus1=80448355002412.1.2.3 bus2=80448345002412.1.2.3 r1=0.975 x1=0.47 length=0.020113 units=km normamps=152.0
new line.52875592 phases=3 bus1=80448455002412.1.2.3 bus2=80448465002412.1.2.3 r1=0.195 x1=0.4 length=0.03851 units=km normamps=419.0
new line.52875593 phases=3 bus1=80448465002412.1.2.3 bus2=80448475002412.1.2.3 r1=0.195 x1=0.4 length=0.024584 units=km normamps=419.0
new line.52875594 phases=3 bus1=80448475002412.1.2.3 bus2=80448485002412.1.2.3 r1=0.195 x1=0.4 length=0.013757 units=km normamps=419.0
new line.52875595 phases=3 bus1=80448505002412.1.2.3 bus2=80448495002412B.1.2.3 r1=1.551 x1=0.49 length=0.0254 units=km normamps=114.0
new line.52875596 phases=3 bus1=80448495002412.1.2.3 bus2=80448475002412.1.2.3 r1=1.551 x1=0.49 length=0.013757 units=km normamps=114.0
new line.52875597 phases=3 bus1=80448475002412.1.2.3 bus2=80448425002412.1.2.3 r1=1.551 x1=0.49 length=0.029722 units=km normamps=114.0
new line.52875598 phases=3 bus1=80448485002412.1.2.3 bus2=80448515002412.1.2.3 r1=0.195 x1=0.4 length=0.035437 units=km normamps=419.0
new line.52875599 phases=3 bus1=80448515002412.1.2.3 bus2=80448525002412.1.2.3 r1=0.195 x1=0.4 length=0.039072 units=km normamps=419.0
new line.52875600 phases=3 bus1=80448525002412.1.2.3 bus2=80448555002412.1.2.3 r1=0.195 x1=0.4 length=0.037822 units=km normamps=419.0
new line.52875601 phases=3 bus1=80448555002412.1.2.3 bus2=80448355002412.1.2.3 r1=0.975 x1=0.47 length=0.041853 units=km normamps=152.0
new line.52875602 phases=3 bus1=80448555002412.1.2.3 bus2=89355535002412.1.2.3 r1=0.195 x1=0.4 length=0.031328 units=km normamps=419.0
new line.52875603 phases=3 bus1=80448805002412.1.2.3 bus2=80448795002412.1.2.3 r1=1.551 x1=0.49 length=0.035496 units=km normamps=114.0
new line.52875604 phases=3 bus1=80448795002412.1.2.3 bus2=80448815002412.1.2.3 r1=1.551 x1=0.49 length=0.02865 units=km normamps=114.0
new line.52875605 phases=3 bus1=80448815002412.1.2.3 bus2=80448825002412.1.2.3 r1=1.551 x1=0.49 length=0.04122 units=km normamps=114.0
new line.52875606 phases=3 bus1=80448835002412.1.2.3 bus2=80448505002412.1.2.3 r1=1.551 x1=0.49 length=0.029647 units=km normamps=114.0
new line.52875607 phases=3 bus1=80448835002412.1.2.3 bus2=80448825002412.1.2.3 r1=1.551 x1=0.49 length=0.013332 units=km normamps=114.0
new line.52875608 phases=3 bus1=80448835002412.1.2.3 bus2=80448845002412.1.2.3 r1=1.551 x1=0.49 length=0.032603 units=km normamps=114.0
new line.52875609 phases=3 bus1=80448855002412.1.2.3 bus2=80448845002412.1.2.3 r1=1.551 x1=0.49 length=0.03198 units=km normamps=114.0
new line.52875610 phases=3 bus1=80448865002412.1.2.3 bus2=80448855002412.1.2.3 r1=1.551 x1=0.49 length=0.034079 units=km normamps=114.0
new line.52875611 phases=3 bus1=80448895002412.1.2.3 bus2=80448905002412.1.2.3 r1=0.975 x1=0.47 length=0.044903 units=km normamps=152.0
new line.52875612 phases=3 bus1=80448915002412.1.2.3 bus2=80448895002412.1.2.3 r1=0.975 x1=0.47 length=0.042029 units=km normamps=152.0
new line.52875613 phases=3 bus1=80448925002412.1.2.3 bus2=80448915002412.1.2.3 r1=0.975 x1=0.47 length=0.041271 units=km normamps=152.0
new line.52875614 phases=3 bus1=80448945002412.1.2.3 bus2=80448925002412.1.2.3 r1=0.975 x1=0.47 length=0.029724 units=km normamps=152.0
new line.52875615 phases=3 bus1=80448935002412.1.2.3 bus2=80448945002412.1.2.3 r1=0.975 x1=0.47 length=0.033292 units=km normamps=152.0
new line.52875616 phases=3 bus1=80448955002412.1.2.3 bus2=80448935002412.1.2.3 r1=0.975 x1=0.47 length=0.033284 units=km normamps=152.0
new line.52875620 phases=3 bus1=80449055002412.1.2.3 bus2=80449065002412.1.2.3 r1=0.975 x1=0.47 length=0.019669 units=km normamps=152.0
new line.52875621 phases=3 bus1=80449065002412.1.2.3 bus2=80449075002412.1.2.3 r1=0.975 x1=0.47 length=0.030196 units=km normamps=152.0
new line.52875622 phases=3 bus1=80449075002412.1.2.3 bus2=80448065002412.1.2.3 r1=1.551 x1=0.49 length=0.06219 units=km normamps=114.0
new line.52875623 phases=3 bus1=80449075002412.1.2.3 bus2=80449085002412.1.2.3 r1=1.551 x1=0.49 length=0.026665 units=km normamps=114.0
new line.52875624 phases=3 bus1=80449085002412.1.2.3 bus2=80449095002412.1.2.3 r1=0.975 x1=0.47 length=0.021955 units=km normamps=152.0
new line.52875625 phases=3 bus1=80449095002412.1.2.3 bus2=80449105002412.1.2.3 r1=0.975 x1=0.47 length=0.027901 units=km normamps=152.0
new line.52875626 phases=3 bus1=80449105002412.1.2.3 bus2=80449275002412.1.2.3 r1=0.975 x1=0.47 length=0.027147 units=km normamps=152.0
new line.52875627 phases=3 bus1=80449355002412.1.2.3 bus2=80449365002412.1.2.3 r1=0.975 x1=0.47 length=0.027052 units=km normamps=152.0
new line.52875629 phases=3 bus1=80449455002412.1.2.3 bus2=80449465002412.1.2.3 r1=0.195 x1=0.4 length=0.039404 units=km normamps=419.0
new line.52875630 phases=3 bus1=80449475002412.1.2.3 bus2=80449455002412.1.2.3 r1=0.975 x1=0.47 length=0.061864 units=km normamps=152.0
new line.52875631 phases=3 bus1=80449465002412B.1.2.3 bus2=80449395002412.1.2.3 r1=1.551 x1=0.49 length=0.030999 units=km normamps=114.0
new line.52875632 phases=3 bus1=80449465002412.1.2.3 bus2=80449485002412.1.2.3 r1=0.195 x1=0.4 length=0.038882 units=km normamps=419.0
new line.52875633 phases=3 bus1=80449495002412.1.2.3 bus2=80449485002412.1.2.3 r1=0.195 x1=0.4 length=0.010732 units=km normamps=419.0
new line.52875634 phases=3 bus1=80449485002412.1.2.3 bus2=84632685002412.1.2.3 r1=0.195 x1=0.4 length=0.027105 units=km normamps=419.0
new line.52875635 phases=3 bus1=80449515002412.1.2.3 bus2=80449505002412.1.2.3 r1=0.195 x1=0.4 length=0.008269 units=km normamps=419.0
new line.52875636 phases=3 bus1=80449505002412.1.2.3 bus2=80448455002412.1.2.3 r1=0.195 x1=0.4 length=0.035314 units=km normamps=419.0
new line.52875637 phases=3 bus1=80449765002412.1.2.3 bus2=80449755002412.1.2.3 r1=1.551 x1=0.49 length=0.033729 units=km normamps=114.0
new line.52875638 phases=3 bus1=80449755002412.1.2.3 bus2=80449745002412.1.2.3 r1=1.551 x1=0.49 length=0.030661 units=km normamps=114.0
new line.52875639 phases=3 bus1=80448575002412.1.2.3 bus2=80448585002412.1.2.3 r1=0.975 x1=0.47 length=0.020108 units=km normamps=152.0
new line.52875640 phases=3 bus1=80448585002412.1.2.3 bus2=80448595002412.1.2.3 r1=0.975 x1=0.47 length=0.006908 units=km normamps=152.0
new line.52875641 phases=3 bus1=80448595002412.1.2.3 bus2=80448605002412.1.2.3 r1=0.975 x1=0.47 length=0.031899 units=km normamps=152.0
new line.52875642 phases=3 bus1=80448315002412.1.2.3 bus2=80448585002412.1.2.3 r1=1.551 x1=0.49 length=0.03593 units=km normamps=114.0
new line.52875643 phases=3 bus1=80448585002412.1.2.3 bus2=80448955002412.1.2.3 r1=1.551 x1=0.49 length=0.009427 units=km normamps=114.0
new line.52875644 phases=3 bus1=80448805002412.1.2.3 bus2=80449835002412.1.2.3 r1=1.551 x1=0.49 length=0.002439 units=km normamps=114.0
new line.52875645 phases=3 bus1=80452555002412.1.2.3 bus2=87149365002412.1.2.3 r1=1.551 x1=0.47 length=0.01386 units=km normamps=125.0
new line.52875647 phases=3 bus1=80457055002412.1.2.3 bus2=80457065002412.1.2.3 r1=1.551 x1=0.49 length=0.036937 units=km normamps=114.0
new line.52875648 phases=3 bus1=80457285002412.1.2.3 bus2=80457235002412.1.2.3 r1=0.975 x1=0.47 length=0.017595 units=km normamps=152.0
new line.52875649 phases=3 bus1=80457295002412.1.2.3 bus2=80457285002412.1.2.3 r1=0.975 x1=0.47 length=0.029053 units=km normamps=152.0
new line.52875650 phases=3 bus1=80457305002412.1.2.3 bus2=80457295002412.1.2.3 r1=0.732 x1=0.31 length=0.034478 units=km normamps=225.0
new line.52875651 phases=3 bus1=80457315002412.1.2.3 bus2=80457305002412.1.2.3 r1=0.975 x1=0.47 length=0.017636 units=km normamps=152.0
new line.52875652 phases=3 bus1=80457365002412.1.2.3 bus2=80457345002412.1.2.3 r1=0.732 x1=0.31 length=0.027677 units=km normamps=225.0
new line.52875653 phases=3 bus1=80457425002412.1.2.3 bus2=80457415002412.1.2.3 r1=0.732 x1=0.31 length=0.028631 units=km normamps=225.0
new line.52875654 phases=3 bus1=80457425002412.1.2.3 bus2=80457435002412.1.2.3 r1=0.236 x1=0.27 length=0.022496 units=km normamps=456.0
new line.52875655 phases=3 bus1=80457495002412.1.2.3 bus2=80457485002412.1.2.3 r1=0.236 x1=0.27 length=0.038178 units=km normamps=456.0
new line.52875656 phases=3 bus1=80457485002412.1.2.3 bus2=80457475002412.1.2.3 r1=0.732 x1=0.31 length=0.03327 units=km normamps=225.0
new line.52875657 phases=3 bus1=80457505002412.1.2.3 bus2=80457475002412.1.2.3 r1=1.551 x1=0.49 length=0.010077 units=km normamps=114.0
new line.52875658 phases=3 bus1=80457525002412.1.2.3 bus2=80457535002412.1.2.3 r1=0.732 x1=0.31 length=0.021181 units=km normamps=225.0
new line.52875659 phases=3 bus1=80457545002412.1.2.3 bus2=80457535002412.1.2.3 r1=1.551 x1=0.49 length=0.017943 units=km normamps=114.0
new line.52875660 phases=3 bus1=80457535002412.1.2.3 bus2=80457555002412.1.2.3 r1=0.732 x1=0.31 length=0.018055 units=km normamps=225.0
new line.52875661 phases=3 bus1=80457565002412.1.2.3 bus2=80457555002412.1.2.3 r1=1.551 x1=0.49 length=0.006257 units=km normamps=114.0
new line.52875662 phases=3 bus1=80457555002412.1.2.3 bus2=80449845002412.1.2.3 r1=0.732 x1=0.31 length=0.029295 units=km normamps=225.0
new line.52875663 phases=3 bus1=80457575002412.1.2.3 bus2=80449845002412.1.2.3 r1=0.732 x1=0.31 length=0.012763 units=km normamps=225.0
new line.52875664 phases=3 bus1=80449855002412.1.2.3 bus2=80457585002412.1.2.3 r1=0.236 x1=0.27 length=0.010324 units=km normamps=456.0
new line.52875665 phases=3 bus1=80457595002412.1.2.3 bus2=80449855002412.1.2.3 r1=0.195 x1=0.4 length=0.008298 units=km normamps=419.0
new line.52875666 phases=3 bus1=80457585002412.1.2.3 bus2=80457605002412.1.2.3 r1=0.236 x1=0.27 length=0.024284 units=km normamps=456.0
new line.52875667 phases=3 bus1=80457605002412B.1.2.3 bus2=80457525002412.1.2.3 r1=0.732 x1=0.31 length=0.032274 units=km normamps=225.0
new line.52875668 phases=3 bus1=80457605002412.1.2.3 bus2=80457615002412.1.2.3 r1=0.236 x1=0.27 length=0.015885 units=km normamps=456.0
new line.52875669 phases=3 bus1=80457615002412.1.2.3 bus2=80457485002412.1.2.3 r1=0.236 x1=0.27 length=0.015476 units=km normamps=456.0
new line.52875670 phases=3 bus1=80457625002412.1.2.3 bus2=80457615002412.1.2.3 r1=0.975 x1=0.47 length=0.034739 units=km normamps=152.0
new line.52875671 phases=3 bus1=80449865002412.1.2.3 bus2=88188565002412.1.2.3 r1=0.236 x1=0.27 length=0.0163 units=km normamps=456.0
new line.52875672 phases=3 bus1=80457495002412.1.2.3 bus2=80457635002412.1.2.3 r1=0.236 x1=0.27 length=0.030499 units=km normamps=456.0
new line.52875673 phases=3 bus1=80457635002412.1.2.3 bus2=80457665002412.1.2.3 r1=0.236 x1=0.27 length=0.034788 units=km normamps=456.0
new line.52875674 phases=3 bus1=80457665002412.1.2.3 bus2=80457655002412.1.2.3 r1=0.236 x1=0.27 length=0.013627 units=km normamps=456.0
new line.52875675 phases=3 bus1=80457305002412.1.2.3 bus2=80457665002412.1.2.3 r1=0.732 x1=0.31 length=0.037906 units=km normamps=225.0
new line.52875676 phases=3 bus1=80457665002412.1.2.3 bus2=80457645002412.1.2.3 r1=0.732 x1=0.31 length=0.009471 units=km normamps=225.0
new line.52875677 phases=3 bus1=80457655002412.1.2.3 bus2=94944685002412.1.2.3 r1=0.236 x1=0.27 length=0.006777 units=km normamps=456.0
new line.52875678 phases=3 bus1=80457355002412.1.2.3 bus2=80457365002412.1.2.3 r1=0.236 x1=0.27 length=0.027685 units=km normamps=456.0
new line.52875679 phases=3 bus1=80457365002412.1.2.3 bus2=80457675002412.1.2.3 r1=0.236 x1=0.27 length=0.018519 units=km normamps=456.0
new line.52875680 phases=3 bus1=80457685002412.1.2.3 bus2=80457675002412.1.2.3 r1=0.975 x1=0.47 length=0.031637 units=km normamps=152.0
new line.52875681 phases=3 bus1=80457675002412.1.2.3 bus2=80457695002412.1.2.3 r1=0.236 x1=0.27 length=0.014352 units=km normamps=456.0
new line.52875682 phases=3 bus1=80457705002412.1.2.3 bus2=80457695002412.1.2.3 r1=0.732 x1=0.31 length=0.006054 units=km normamps=225.0
new line.52875683 phases=3 bus1=80457695002412.1.2.3 bus2=80457715002412.1.2.3 r1=0.236 x1=0.27 length=0.023531 units=km normamps=456.0
new line.52875685 phases=3 bus1=80457725002412.1.2.3 bus2=80457735002412.1.2.3 r1=0.236 x1=0.27 length=0.032785 units=km normamps=456.0
new line.52875686 phases=3 bus1=80457735002412.1.2.3 bus2=80457425002412.1.2.3 r1=0.236 x1=0.27 length=0.028795 units=km normamps=456.0
new line.52875687 phases=3 bus1=80457745002412.1.2.3 bus2=80457725002412.1.2.3 r1=0.732 x1=0.31 length=0.006529 units=km normamps=225.0
new line.52875688 phases=3 bus1=80457755002412.1.2.3 bus2=80457415002412.1.2.3 r1=1.551 x1=0.49 length=0.007209 units=km normamps=114.0
new line.52875689 phases=3 bus1=80457785002412.1.2.3 bus2=80457775002412.1.2.3 r1=0.195 x1=0.4 length=0.050685 units=km normamps=419.0
new line.52875690 phases=3 bus1=80448565002412.1.2.3 bus2=80457785002412.1.2.3 r1=0.195 x1=0.4 length=0.051668 units=km normamps=419.0
new line.52875691 phases=3 bus1=80457865002412.1.2.3 bus2=80457775002412.1.2.3 r1=0.195 x1=0.4 length=0.027777 units=km normamps=419.0
new line.52875693 phases=3 bus1=80457905002412.1.2.3 bus2=80457875002412.1.2.3 r1=0.195 x1=0.4 length=0.017307 units=km normamps=419.0
new line.52875694 phases=3 bus1=80457905002412.1.2.3 bus2=80457895002412.1.2.3 r1=0.195 x1=0.4 length=0.012365 units=km normamps=419.0
new line.52875695 phases=3 bus1=80457885002412.1.2.3 bus2=80457905002412.1.2.3 r1=1.551 x1=0.49 length=0.009999 units=km normamps=114.0
new line.52875696 phases=3 bus1=80457905002412.1.2.3 bus2=80457065002412.1.2.3 r1=1.551 x1=0.49 length=0.025051 units=km normamps=114.0
new line.52875697 phases=3 bus1=80457885002412.1.2.3 bus2=80457915002412.1.2.3 r1=1.551 x1=0.49 length=0.020704 units=km normamps=114.0
new line.52875698 phases=3 bus1=80457925002412.1.2.3 bus2=80457915002412B.1.2.3 r1=1.551 x1=0.49 length=0.039069 units=km normamps=114.0
new line.52875699 phases=3 bus1=80457925002412.1.2.3 bus2=80457935002412.1.2.3 r1=1.551 x1=0.49 length=0.034707 units=km normamps=114.0
new line.52875700 phases=3 bus1=80457935002412.1.2.3 bus2=80448325002412.1.2.3 r1=1.551 x1=0.49 length=0.031837 units=km normamps=114.0
new line.52875701 phases=3 bus1=80457945002412.1.2.3 bus2=80457895002412.1.2.3 r1=0.195 x1=0.4 length=0.022694 units=km normamps=419.0
new line.52875702 phases=3 bus1=80457955002412.1.2.3 bus2=80457945002412.1.2.3 r1=0.195 x1=0.4 length=0.029724 units=km normamps=419.0
new line.52875703 phases=3 bus1=80457955002412.1.2.3 bus2=80457965002412.1.2.3 r1=0.195 x1=0.4 length=0.0204 units=km normamps=419.0
new line.52875704 phases=3 bus1=80457965002412.1.2.3 bus2=80457105002412.1.2.3 r1=1.551 x1=0.49 length=0.023533 units=km normamps=114.0
new line.52875705 phases=3 bus1=80457965002412.1.2.3 bus2=80457975002412.1.2.3 r1=1.551 x1=0.49 length=0.012621 units=km normamps=114.0
new line.52875706 phases=3 bus1=80457985002412.1.2.3 bus2=80457975002412B.1.2.3 r1=0.975 x1=0.47 length=0.028785 units=km normamps=152.0
new line.52875707 phases=3 bus1=80457985002412.1.2.3 bus2=91010235002412.1.2.3 r1=0.975 x1=0.47 length=0.014203 units=km normamps=152.0
new line.52875708 phases=3 bus1=80458035002412.1.2.3 bus2=80457965002412.1.2.3 r1=0.195 x1=0.4 length=0.010434 units=km normamps=419.0
new line.52875709 phases=3 bus1=80458045002412.1.2.3 bus2=80458035002412.1.2.3 r1=0.195 x1=0.4 length=0.031844 units=km normamps=419.0
new line.52875710 phases=3 bus1=80458055002412.1.2.3 bus2=80458045002412.1.2.3 r1=0.195 x1=0.4 length=0.026665 units=km normamps=419.0
new line.52875711 phases=3 bus1=80458075002412.1.2.3 bus2=80458055002412.1.2.3 r1=0.195 x1=0.4 length=0.020552 units=km normamps=419.0
new line.52875712 phases=3 bus1=80458065002412.1.2.3 bus2=80458075002412.1.2.3 r1=0.195 x1=0.4 length=0.009258 units=km normamps=419.0
new line.52875714 phases=3 bus1=80458095002412.1.2.3 bus2=80458105002412.1.2.3 r1=0.975 x1=0.47 length=0.030139 units=km normamps=152.0
new line.52875715 phases=3 bus1=80458105002412.1.2.3 bus2=91010285002412.1.2.3 r1=0.975 x1=0.47 length=0.011038 units=km normamps=152.0
new line.52875716 phases=3 bus1=80458115002412.1.2.3 bus2=80458125002412.1.2.3 r1=0.975 x1=0.47 length=0.034824 units=km normamps=152.0
new line.52875717 phases=3 bus1=80458125002412.1.2.3 bus2=90987845002412.1.2.3 r1=0.975 x1=0.47 length=0.013455 units=km normamps=152.0
new line.52875718 phases=3 bus1=80458135002412.1.2.3 bus2=90137775002412.1.2.3 r1=0.975 x1=0.47 length=0.017093 units=km normamps=152.0
new line.52875719 phases=3 bus1=80458145002412.1.2.3 bus2=80448225002412.1.2.3 r1=0.975 x1=0.47 length=0.022821 units=km normamps=152.0
new line.52875720 phases=3 bus1=80458155002412.1.2.3 bus2=80458065002412.1.2.3 r1=0.195 x1=0.4 length=0.027685 units=km normamps=419.0
new line.52875721 phases=3 bus1=80458085002412.1.2.3 bus2=80458075002412.1.2.3 r1=1.551 x1=0.49 length=0.00751 units=km normamps=114.0
new line.52875722 phases=3 bus1=80458095002412.1.2.3 bus2=80458085002412B.1.2.3 r1=0.975 x1=0.47 length=0.034416 units=km normamps=152.0
new line.52875723 phases=3 bus1=80458165002412.1.2.3 bus2=80458155002412.1.2.3 r1=0.195 x1=0.4 length=0.025584 units=km normamps=419.0
new line.52875724 phases=3 bus1=80458175002412.1.2.3 bus2=80458165002412.1.2.3 r1=0.195 x1=0.4 length=0.038803 units=km normamps=419.0
new line.52875725 phases=3 bus1=80458205002412.1.2.3 bus2=80458175002412.1.2.3 r1=0.195 x1=0.4 length=0.020736 units=km normamps=419.0
new line.52875726 phases=3 bus1=80458215002412B.1.2.3 bus2=94350825002412.1.2.3 r1=0.195 x1=0.4 length=0.010553 units=km normamps=419.0
new line.52875727 phases=3 bus1=80458225002412.1.2.3 bus2=80458175002412B.1.2.3 r1=1.551 x1=0.49 length=0.025445 units=km normamps=114.0
new line.52875728 phases=3 bus1=80458305002412.1.2.3 bus2=80458295002412.1.2.3 r1=0.236 x1=0.27 length=0.025645 units=km normamps=456.0
new line.52875729 phases=3 bus1=80458315002412.1.2.3 bus2=80458305002412.1.2.3 r1=0.236 x1=0.27 length=0.022865 units=km normamps=456.0
new line.52875730 phases=3 bus1=80458315002412.1.2.3 bus2=80458215002412.1.2.3 r1=0.195 x1=0.4 length=0.060902 units=km normamps=419.0
new line.52875731 phases=3 bus1=80449875002412.1.2.3 bus2=80458315002412.1.2.3 r1=0.236 x1=0.27 length=0.032865 units=km normamps=456.0
new line.52875732 phases=3 bus1=80457435002412.1.2.3 bus2=80449875002412.1.2.3 r1=0.236 x1=0.27 length=0.054339 units=km normamps=456.0
new line.52875733 phases=3 bus1=80458305002412B.1.2.3 bus2=80458355002412.1.2.3 r1=0.732 x1=0.31 length=0.049242 units=km normamps=225.0
new line.52875734 phases=3 bus1=80458355002412.1.2.3 bus2=80458345002412.1.2.3 r1=1.551 x1=0.49 length=0.030403 units=km normamps=114.0
new line.52875735 phases=3 bus1=80458375002412.1.2.3 bus2=80458345002412.1.2.3 r1=1.551 x1=0.49 length=0.007608 units=km normamps=114.0
new line.52875737 phases=3 bus1=80458505002412.1.2.3 bus2=80458595002412.1.2.3 r1=1.551 x1=0.49 length=0.0267 units=km normamps=114.0
new line.52875738 phases=3 bus1=80458605002412.1.2.3 bus2=80458595002412.1.2.3 r1=1.551 x1=0.49 length=0.028182 units=km normamps=114.0
new line.52875739 phases=3 bus1=80452375002412.1.2.3 bus2=80458605002412.1.2.3 r1=1.551 x1=0.49 length=0.029872 units=km normamps=114.0
new line.52875740 phases=3 bus1=80449765002412.1.2.3 bus2=80452375002412.1.2.3 r1=1.551 x1=0.49 length=0.040369 units=km normamps=114.0
new line.52875741 phases=3 bus1=80452385002412.1.2.3 bus2=80452375002412.1.2.3 r1=1.551 x1=0.49 length=0.026109 units=km normamps=114.0
new line.52875742 phases=3 bus1=80458735002412.1.2.3 bus2=79663165002412.1.2.3 r1=0.975 x1=0.47 length=0.041977 units=km normamps=152.0
new line.52875743 phases=3 bus1=80452525002412.1.2.3 bus2=80458735002412.1.2.3 r1=0.975 x1=0.47 length=0.010027 units=km normamps=152.0
new line.52875744 phases=3 bus1=80452565002412.1.2.3 bus2=80452555002412.1.2.3 r1=0.975 x1=0.47 length=0.027261 units=km normamps=152.0
new line.52875745 phases=3 bus1=80452575002412.1.2.3 bus2=80452565002412.1.2.3 r1=0.975 x1=0.47 length=0.007343 units=km normamps=152.0
new line.52875746 phases=3 bus1=80452595002412.1.2.3 bus2=80458745002412.1.2.3 r1=1.551 x1=0.49 length=0.018504 units=km normamps=114.0
new line.52875747 phases=3 bus1=80452605002412.1.2.3 bus2=80458745002412.1.2.3 r1=1.551 x1=0.49 length=0.015328 units=km normamps=114.0
new line.52875748 phases=3 bus1=80451815002412.1.2.3 bus2=80458745002412.1.2.3 r1=1.551 x1=0.49 length=0.017403 units=km normamps=114.0
new line.52875749 phases=3 bus1=80458745002412.1.2.3 bus2=80452615002412.1.2.3 r1=1.551 x1=0.49 length=0.019456 units=km normamps=114.0
new line.52875750 phases=3 bus1=80458755002412.1.2.3 bus2=80452605002412.1.2.3 r1=1.551 x1=0.49 length=0.030694 units=km normamps=114.0
new line.52875751 phases=3 bus1=80458765002412.1.2.3 bus2=80458755002412.1.2.3 r1=1.551 x1=0.49 length=0.007158 units=km normamps=114.0
new line.52875752 phases=3 bus1=80458805002412.1.2.3 bus2=80458795002412.1.2.3 r1=0.975 x1=0.47 length=0.03502 units=km normamps=152.0
new line.52875753 phases=3 bus1=80458815002412.1.2.3 bus2=80458795002412.1.2.3 r1=0.975 x1=0.47 length=0.006618 units=km normamps=152.0
new line.52875754 phases=3 bus1=80458995002412.1.2.3 bus2=80459005002412.1.2.3 r1=0.975 x1=0.47 length=0.025564 units=km normamps=152.0
...

! 3. Chaves Seccionadoras MT
new line.SC_5270770 phases=3 bus1=80450975002412.1.2.3 bus2=80450975002412B.1.2.3 switch=y r1=1e-4 x1=1e-4 length=0.001 units=km
new line.SC_5270772 phases=3 bus1=80458215002412.1.2.3 bus2=80458215002412B.1.2.3 switch=y r1=1e-4 x1=1e-4 length=0.001 units=km
new line.SC_5270814 phases=3 bus1=80449465002412.1.2.3 bus2=80449465002412B.1.2.3 switch=y r1=1e-4 x1=1e-4 length=0.001 units=km
new line.SC_5270819 phases=3 bus1=80448495002412.1.2.3 bus2=80448495002412B.1.2.3 switch=y r1=1e-4 x1=1e-4 length=0.001 units=km
new line.SC_5270823 phases=3 bus1=80457915002412.1.2.3 bus2=80457915002412B.1.2.3 switch=y r1=1e-4 x1=1e-4 length=0.001 units=km
new line.SC_5270824 phases=3 bus1=80457975002412.1.2.3 bus2=80457975002412B.1.2.3 switch=y r1=1e-4 x1=1e-4 length=0.001 units=km
new line.SC_5270825 phases=3 bus1=80458085002412.1.2.3 bus2=80458085002412B.1.2.3 switch=y r1=1e-4 x1=1e-4 length=0.001 units=km
new line.SC_5270826 phases=3 bus1=80449875002412.1.2.3 bus2=80449875002412B.1.2.3 switch=y r1=1e-4 x1=1e-4 length=0.001 units=km
new line.SC_5270828 phases=3 bus1=80457645002412.1.2.3 bus2=80457645002412B.1.2.3 switch=y r1=1e-4 x1=1e-4 length=0.001 units=km
new line.SC_5270847 phases=3 bus1=80458305002412.1.2.3 bus2=80458305002412B.1.2.3 switch=y r1=1e-4 x1=1e-4 length=0.001 units=km
new line.SC_5270854 phases=3 bus1=80460965002412.1.2.3 bus2=80460965002412B.1.2.3 switch=y r1=1e-4 x1=1e-4 length=0.001 units=km
new line.SC_5270856 phases=3 bus1=80458675002412.1.2.3 bus2=80458675002412B.1.2.3 switch=y r1=1e-4 x1=1e-4 length=0.001 units=km
new line.SC_5270860 phases=3 bus1=80458175002412.1.2.3 bus2=80458175002412B.1.2.3 switch=y r1=1e-4 x1=1e-4 length=0.001 units=km
new line.SC_5271901 phases=3 bus1=80530715002412.1.2.3 bus2=80530715002412B.1.2.3 switch=y r1=1e-4 x1=1e-4 length=0.001 units=km
new line.SC_5271908 phases=3 bus1=80439915002412.1.2.3 bus2=80439915002412B.1.2.3 switch=y r1=1e-4 x1=1e-4 length=0.001 units=km
new line.SC_5271973 phases=3 bus1=80530915002412.1.2.3 bus2=80530915002412B.1.2.3 switch=y r1=1e-4 x1=1e-4 length=0.001 units=km
new line.SC_5299145 phases=3 bus1=80459165002412.1.2.3 bus2=80459165002412B.1.2.3 switch=y r1=1e-4 x1=1e-4 length=0.001 units=km
new line.SC_5344641 phases=3 bus1=80527805002412.1.2.3 bus2=80527805002412B.1.2.3 switch=y r1=1e-4 x1=1e-4 length=0.001 units=km
new line.SC_5547475 phases=3 bus1=80451095002412.1.2.3 bus2=80451095002412B.1.2.3 switch=y r1=1e-4 x1=1e-4 length=0.001 units=km
new line.SC_5548267 phases=3 bus1=93303535002412.1.2.3 bus2=93303535002412B.1.2.3 switch=y r1=1e-4 x1=1e-4 length=0.001 units=km
new line.SC_5549367 phases=3 bus1=90064835002412.1.2.3 bus2=90064835002412B.1.2.3 switch=y r1=1e-4 x1=1e-4 length=0.001 units=km
open line.SC_5549367 1
new line.SC_5549370 phases=3 bus1=93508195002412.1.2.3 bus2=93508195002412B.1.2.3 switch=y r1=1e-4 x1=1e-4 length=0.001 units=km
new line.SC_5549399 phases=3 bus1=94191425002412.1.2.3 bus2=94191425002412B.1.2.3 switch=y r1=1e-4 x1=1e-4 length=0.001 units=km
new line.SC_5549400 phases=3 bus1=94191195002412.1.2.3 bus2=94191195002412B.1.2.3 switch=y r1=1e-4 x1=1e-4 length=0.001 units=km
open line.SC_5549400 1
new line.SC_5549401 phases=3 bus1=94191435002412.1.2.3 bus2=94191435002412B.1.2.3 switch=y r1=1e-4 x1=1e-4 length=0.001 units=km
new line.SC_5549404 phases=3 bus1=80451285002412.1.2.3 bus2=80451285002412B.1.2.3 switch=y r1=1e-4 x1=1e-4 length=0.001 units=km
new line.SC_5549492 phases=3 bus1=92939575002412.1.2.3 bus2=92939575002412B.1.2.3 switch=y r1=1e-4 x1=1e-4 length=0.001 units=km
new line.SC_5549494 phases=3 bus1=80531775002412.1.2.3 bus2=80531775002412B.1.2.3 switch=y r1=1e-4 x1=1e-4 length=0.001 units=km
new line.SC_5549495 phases=3 bus1=90069565002412.1.2.3 bus2=90069565002412B.1.2.3 switch=y r1=1e-4 x1=1e-4 length=0.001 units=km
new line.SC_5580925 phases=3 bus1=79531455002412.1.2.3 bus2=79531455002412B.1.2.3 switch=y r1=1e-4 x1=1e-4 length=0.001 units=km
open line.SC_5580925 1
new line.SC_5585658 phases=3 bus1=91027295002412.1.2.3 bus2=91027295002412B.1.2.3 switch=y r1=1e-4 x1=1e-4 length=0.001 units=km
new line.SC_5611286 phases=3 bus1=80457145002412.1.2.3 bus2=80457145002412B.1.2.3 switch=y r1=1e-4 x1=1e-4 length=0.001 units=km
new line.SC_5641467 phases=3 bus1=91188495002412.1.2.3 bus2=91188495002412B.1.2.3 switch=y r1=1e-4 x1=1e-4 length=0.001 units=km
new line.SC_5642689 phases=3 bus1=92939555002412.1.2.3 bus2=92939555002412B.1.2.3 switch=y r1=1e-4 x1=1e-4 length=0.001 units=km
open line.SC_5642689 1
new line.SC_5645029 phases=3 bus1=93014125002412.1.2.3 bus2=93014125002412B.1.2.3 switch=y r1=1e-4 x1=1e-4 length=0.001 units=km
open line.SC_5645029 1
new line.SC_5645810 phases=3 bus1=80531805002412.1.2.3 bus2=80531805002412B.1.2.3 switch=y r1=1e-4 x1=1e-4 length=0.001 units=km
open line.SC_5645810 1
new line.SC_5678421 phases=3 bus1=93369305002412.1.2.3 bus2=93369305002412B.1.2.3 switch=y r1=1e-4 x1=1e-4 length=0.001 units=km
open line.SC_5678421 1
new line.SC_5688627 phases=3 bus1=94327055002412.1.2.3 bus2=94327055002412B.1.2.3 switch=y r1=1e-4 x1=1e-4 length=0.001 units=km
open line.SC_5688627 1
new line.SC_5689816 phases=3 bus1=94350815002412.1.2.3 bus2=94350815002412B.1.2.3 switch=y r1=1e-4 x1=1e-4 length=0.001 units=km
new line.SC_5689817 phases=3 bus1=94350865002412.1.2.3 bus2=94350865002412B.1.2.3 switch=y r1=1e-4 x1=1e-4 length=0.001 units=km
open line.SC_5689817 1
new line.SC_5694670 phases=3 bus1=80457605002412.1.2.3 bus2=80457605002412B.1.2.3 switch=y r1=1e-4 x1=1e-4 length=0.001 units=km
new line.SC_5702453 phases=3 bus1=94327085002412.1.2.3 bus2=94327085002412B.1.2.3 switch=y r1=1e-4 x1=1e-4 length=0.001 units=km
new line.SC_5706399 phases=3 bus1=94659775002412.1.2.3 bus2=94659775002412B.1.2.3 switch=y r1=1e-4 x1=1e-4 length=0.001 units=km
open line.SC_5706399 1
new line.SC_5715419 phases=3 bus1=94944565002412.1.2.3 bus2=94944565002412B.1.2.3 switch=y r1=1e-4 x1=1e-4 length=0.001 units=km
new line.SC_5715437 phases=3 bus1=94944585002412.1.2.3 bus2=94944585002412B.1.2.3 switch=y r1=1e-4 x1=1e-4 length=0.001 units=km
open line.SC_5715437 1
new line.SC_5718323 phases=3 bus1=95019575002412.1.2.3 bus2=95019575002412B.1.2.3 switch=y r1=1e-4 x1=1e-4 length=0.001 units=km
open line.SC_5718323 1
new line.SC_5722453 phases=3 bus1=95248365002412.1.2.3 bus2=95248365002412B.1.2.3 switch=y r1=1e-4 x1=1e-4 length=0.001 units=km
new line.SC_5722454 phases=3 bus1=95248395002412.1.2.3 bus2=95248395002412B.1.2.3 switch=y r1=1e-4 x1=1e-4 length=0.001 units=km
open line.SC_5722454 1
new line.SC_5724853 phases=3 bus1=95408835002412.1.2.3 bus2=95408835002412B.1.2.3 switch=y r1=1e-4 x1=1e-4 length=0.001 units=km
new line.SC_5724854 phases=3 bus1=95408905002412.1.2.3 bus2=95408905002412B.1.2.3 switch=y r1=1e-4 x1=1e-4 length=0.001 units=km
open line.SC_5724854 1
new line.SC_5775955 phases=3 bus1=80450615002412.1.2.3 bus2=80450615002412B.1.2.3 switch=y r1=1e-4 x1=1e-4 length=0.001 units=km
open line.SC_5775955 1
new line.SC_5780168 phases=3 bus1=80450155002412.1.2.3 bus2=80450155002412B.1.2.3 switch=y r1=1e-4 x1=1e-4 length=0.001 units=km
open line.SC_5780168 1
new line.SC_5780195 phases=3 bus1=97738285002412.1.2.3 bus2=97738285002412B.1.2.3 switch=y r1=1e-4 x1=1e-4 length=0.001 units=km
open line.SC_5780195 1
new line.SC_5780196 phases=3 bus1=80531005002412.1.2.3 bus2=80531005002412B.1.2.3 switch=y r1=1e-4 x1=1e-4 length=0.001 units=km
new line.SC_5814618 phases=3 bus1=80448865002412.1.2.3 bus2=80448865002412B.1.2.3 switch=y r1=1e-4 x1=1e-4 length=0.001 units=km
new line.SC_5814617 phases=3 bus1=99596075002412.1.2.3 bus2=99596075002412B.1.2.3 switch=y r1=1e-4 x1=1e-4 length=0.001 units=km
new line.SC_5812450 phases=3 bus1=99367035002412.1.2.3 bus2=99367035002412B.1.2.3 switch=y r1=1e-4 x1=1e-4 length=0.001 units=km
new line.SC_DA0000293 phases=3 bus1=I888888103095002412.1.2.3 bus2=I888888103095002412B.1.2.3 switch=y r1=1e-4 x1=1e-4 length=0.001 units=km
new line.SC_SA0002794 phases=3 bus1=I888888313235002412.1.2.3 bus2=I888888313235002412B.1.2.3 switch=y r1=1e-4 x1=1e-4 length=0.001 units=km
new line.SC_SA0002795 phases=3 bus1=I888888477695002412.1.2.3 bus2=I888888477695002412B.1.2.3 switch=y r1=1e-4 x1=1e-4 length=0.001 units=km
new line.SC_SA0002796 phases=3 bus1=I888888313225002412.1.2.3 bus2=I888888477680B.1.2.3 switch=y r1=1e-4 x1=1e-4 length=0.001 units=km

! 5. Transformadores MT/BT de Distribuicao
new transformer.UNTRMT_5812968 phases=3 windings=2 %r=1.25 xhl=4.32 kva=300.0
~ wdg=1 bus=99446955002412.1.2.3 conn=delta kv=13.8
~ wdg=2 bus=99446955812968.1.2.3.0 conn=wye kv=0.38

new transformer.UNTRMT_5815182 phases=3 windings=2 %r=1.25 xhl=4.32 kva=300.0
~ wdg=1 bus=99619475002412.1.2.3 conn=delta kv=13.8
~ wdg=2 bus=99619475815182.1.2.3.0 conn=wye kv=0.38

new transformer.UNTRMT_5813277 phases=3 windings=2 %r=1.15 xhl=5.89 kva=75.0
~ wdg=1 bus=99435455002412.1.2.3 conn=delta kv=13.8
~ wdg=2 bus=99435455813277.1.2.3.0 conn=wye kv=0.38

new transformer.UNTRMT_5270780 phases=3 windings=2 %r=1.3 xhl=4.31 kva=225.0
~ wdg=1 bus=80449475002412.1.2.3 conn=delta kv=13.8
~ wdg=2 bus=80449475270780.1.2.3.0 conn=wye kv=0.38

new transformer.UNTRMT_5270781 phases=3 windings=2 %r=1.46 xhl=3.18 kva=112.0
~ wdg=1 bus=80449495002412.1.2.3 conn=delta kv=13.8
~ wdg=2 bus=80449495270781.1.2.3.0 conn=wye kv=0.38

new transformer.UNTRMT_5270782 phases=3 windings=2 %r=1.55 xhl=3.14 kva=75.0
~ wdg=1 bus=80448975002412.1.2.3 conn=delta kv=13.8
~ wdg=2 bus=80448975270782.1.2.3.0 conn=wye kv=0.38

new transformer.UNTRMT_5270784 phases=3 windings=2 %r=1.55 xhl=3.14 kva=75.0
~ wdg=1 bus=80449515002412.1.2.3 conn=delta kv=13.8
~ wdg=2 bus=80449515270784.1.2.3.0 conn=wye kv=0.38

new transformer.UNTRMT_5270785 phases=3 windings=2 %r=1.55 xhl=3.14 kva=75.0
~ wdg=1 bus=80450445002412.1.2.3 conn=delta kv=13.8
~ wdg=2 bus=80450445270785.1.2.3.0 conn=wye kv=0.38

new transformer.UNTRMT_5270787 phases=3 windings=2 %r=1.55 xhl=3.14 kva=75.0
~ wdg=1 bus=80450605002412.1.2.3 conn=delta kv=13.8
~ wdg=2 bus=80450605270787.1.2.3.0 conn=wye kv=0.38

new transformer.UNTRMT_5270789 phases=3 windings=2 %r=1.25 xhl=4.32 kva=300.0
~ wdg=1 bus=80458375002412.1.2.3 conn=delta kv=13.8
~ wdg=2 bus=80458375270789.1.2.3.0 conn=wye kv=0.38

new transformer.UNTRMT_5270790 phases=3 windings=2 %r=1.39 xhl=3.21 kva=150.0
~ wdg=1 bus=80457315002412.1.2.3 conn=delta kv=13.8
~ wdg=2 bus=80457315270790.1.2.3.0 conn=wye kv=0.38

new transformer.UNTRMT_5270791 phases=3 windings=2 %r=1.46 xhl=3.18 kva=112.0
~ wdg=1 bus=80457545002412.1.2.3 conn=delta kv=13.8
~ wdg=2 bus=80457545270791.1.2.3.0 conn=wye kv=0.38

new transformer.UNTRMT_5270793 phases=3 windings=2 %r=1.39 xhl=3.21 kva=150.0
~ wdg=1 bus=80457575002412.1.2.3 conn=delta kv=13.8
~ wdg=2 bus=80457575270793.1.2.3.0 conn=wye kv=0.38

new transformer.UNTRMT_5270794 phases=3 windings=2 %r=1.55 xhl=3.14 kva=75.0
~ wdg=1 bus=80457595002412.1.2.3 conn=delta kv=13.8
~ wdg=2 bus=80457595270794.1.2.3.0 conn=wye kv=0.38

new transformer.UNTRMT_5270795 phases=3 windings=2 %r=1.46 xhl=3.18 kva=112.0
~ wdg=1 bus=80457625002412.1.2.3 conn=delta kv=13.8
~ wdg=2 bus=80457625270795.1.2.3.0 conn=wye kv=0.38

new transformer.UNTRMT_5270796 phases=3 windings=2 %r=1.55 xhl=3.14 kva=75.0
~ wdg=1 bus=80457685002412.1.2.3 conn=delta kv=13.8
~ wdg=2 bus=80457685270796.1.2.3.0 conn=wye kv=0.38

new transformer.UNTRMT_5270797 phases=3 windings=2 %r=1.55 xhl=3.14 kva=75.0
~ wdg=1 bus=80457705002412.1.2.3 conn=delta kv=13.8
~ wdg=2 bus=80457705270797.1.2.3.0 conn=wye kv=0.38

new transformer.UNTRMT_5270798 phases=3 windings=2 %r=1.25 xhl=4.32 kva=300.0
~ wdg=1 bus=80457745002412.1.2.3 conn=delta kv=13.8
~ wdg=2 bus=80457745270798.1.2.3.0 conn=wye kv=0.38

new transformer.UNTRMT_5270799 phases=3 windings=2 %r=1.39 xhl=3.21 kva=150.0
~ wdg=1 bus=80457755002412.1.2.3 conn=delta kv=13.8
~ wdg=2 bus=80457755270799.1.2.3.0 conn=wye kv=0.38

new transformer.UNTRMT_5270800 phases=3 windings=2 %r=1.25 xhl=4.32 kva=300.0
~ wdg=1 bus=80458705002412.1.2.3 conn=delta kv=13.8
~ wdg=2 bus=80458705270800.1.2.3.0 conn=wye kv=0.38

new transformer.UNTRMT_5270801 phases=3 windings=2 %r=1.39 xhl=3.21 kva=150.0
~ wdg=1 bus=80452575002412.1.2.3 conn=delta kv=13.8
~ wdg=2 bus=80452575270801.1.2.3.0 conn=wye kv=0.38

new transformer.UNTRMT_5270802 phases=3 windings=2 %r=1.25 xhl=4.32 kva=300.0
~ wdg=1 bus=80458765002412.1.2.3 conn=delta kv=13.8
~ wdg=2 bus=80458765270802.1.2.3.0 conn=wye kv=0.38

new transformer.UNTRMT_5270804 phases=3 windings=2 %r=1.25 xhl=4.32 kva=300.0
~ wdg=1 bus=80451625002412.1.2.3 conn=delta kv=13.8
~ wdg=2 bus=80451625270804.1.2.3.0 conn=wye kv=0.38

new transformer.UNTRMT_5270805 phases=3 windings=2 %r=1.15 xhl=5.89 kva=500.0
~ wdg=1 bus=80451635002412.1.2.3 conn=delta kv=13.8
~ wdg=2 bus=80451635270805.1.2.3.0 conn=wye kv=0.38

new transformer.UNTRMT_5270806 phases=3 windings=2 %r=1.07 xhl=5.9 kva=112.0
~ wdg=1 bus=80452045002412.1.2.3 conn=delta kv=13.8
~ wdg=2 bus=80452045270806.1.2.3.0 conn=wye kv=0.38

new transformer.UNTRMT_5270865 phases=3 windings=2 %r=1.68 xhl=3.07 kva=45.0
~ wdg=1 bus=80449275002412.1.2.3 conn=delta kv=13.8
~ wdg=2 bus=80449275270865.1.2.3.0 conn=wye kv=0.38

new transformer.UNTRMT_5270866 phases=3 windings=2 %r=1.46 xhl=3.18 kva=112.0
~ wdg=1 bus=80449365002412.1.2.3 conn=delta kv=13.8
~ wdg=2 bus=80449365270866.1.2.3.0 conn=wye kv=0.38

new transformer.UNTRMT_5270867 phases=3 windings=2 %r=1.46 xhl=3.18 kva=112.0
~ wdg=1 bus=80449395002412.1.2.3 conn=delta kv=13.8
~ wdg=2 bus=80449395270867.1.2.3.0 conn=wye kv=0.38

new transformer.UNTRMT_5270868 phases=3 windings=2 %r=1.3 xhl=4.31 kva=225.0
~ wdg=1 bus=80449835002412.1.2.3 conn=delta kv=13.8
~ wdg=2 bus=80449835270868.1.2.3.0 conn=wye kv=0.38

new transformer.UNTRMT_5270869 phases=3 windings=2 %r=1.39 xhl=3.21 kva=150.0
~ wdg=1 bus=80448855002412.1.2.3 conn=delta kv=13.8
~ wdg=2 bus=80448855270869.1.2.3.0 conn=wye kv=0.38

new transformer.UNTRMT_5270870 phases=3 windings=2 %r=1.46 xhl=3.18 kva=112.0
~ wdg=1 bus=80448175002412.1.2.3 conn=delta kv=13.8
~ wdg=2 bus=80448175270870.1.2.3.0 conn=wye kv=0.38

new transformer.UNTRMT_5270871 phases=3 windings=2 %r=1.46 xhl=3.18 kva=112.0
~ wdg=1 bus=80448525002412.1.2.3 conn=delta kv=13.8
~ wdg=2 bus=80448525270871.1.2.3.0 conn=wye kv=0.38

new transformer.UNTRMT_5270872 phases=3 windings=2 %r=1.46 xhl=3.18 kva=112.0
~ wdg=1 bus=80449745002412.1.2.3 conn=delta kv=13.8
~ wdg=2 bus=80449745270872.1.2.3.0 conn=wye kv=0.38

new transformer.UNTRMT_5270873 phases=3 windings=2 %r=1.55 xhl=3.14 kva=75.0
~ wdg=1 bus=80449055002412.1.2.3 conn=delta kv=13.8
~ wdg=2 bus=80449055270873.1.2.3.0 conn=wye kv=0.38

new transformer.UNTRMT_5270875 phases=3 windings=2 %r=1.68 xhl=3.07 kva=45.0
~ wdg=1 bus=80450425002412.1.2.3 conn=delta kv=13.8
~ wdg=2 bus=80450425270875.1.2.3.0 conn=wye kv=0.38

new transformer.UNTRMT_5270876 phases=3 windings=2 %r=1.68 xhl=3.07 kva=45.0
~ wdg=1 bus=80450485002412.1.2.3 conn=delta kv=13.8
~ wdg=2 bus=80450485270876.1.2.3.0 conn=wye kv=0.38

new transformer.UNTRMT_5270877 phases=3 windings=2 %r=1.46 xhl=3.18 kva=112.0
~ wdg=1 bus=80450535002412.1.2.3 conn=delta kv=13.8
~ wdg=2 bus=80450535270877.1.2.3.0 conn=wye kv=0.38

new transformer.UNTRMT_5270878 phases=3 windings=2 %r=1.39 xhl=3.21 kva=150.0
~ wdg=1 bus=80450695002412.1.2.3 conn=delta kv=13.8
~ wdg=2 bus=80450695270878.1.2.3.0 conn=wye kv=0.38

new transformer.UNTRMT_5270882 phases=3 windings=2 %r=1.3 xhl=4.31 kva=225.0
~ wdg=1 bus=80458815002412.1.2.3 conn=delta kv=13.8
~ wdg=2 bus=80458815270882.1.2.3.0 conn=wye kv=0.38

new transformer.UNTRMT_5270883 phases=3 windings=2 %r=1.46 xhl=3.18 kva=112.0
~ wdg=1 bus=80458885002412.1.2.3 conn=delta kv=13.8
~ wdg=2 bus=80458885270883.1.2.3.0 conn=wye kv=0.38

new transformer.UNTRMT_5270884 phases=3 windings=2 %r=1.46 xhl=3.18 kva=112.0
~ wdg=1 bus=80458945002412.1.2.3 conn=delta kv=13.8
~ wdg=2 bus=80458945270884.1.2.3.0 conn=wye kv=0.38

new transformer.UNTRMT_5270885 phases=3 windings=2 %r=1.46 xhl=3.18 kva=112.0
~ wdg=1 bus=80457925002412.1.2.3 conn=delta kv=13.8
~ wdg=2 bus=80457925270885.1.2.3.0 conn=wye kv=0.38

new transformer.UNTRMT_5270886 phases=3 windings=2 %r=1.55 xhl=3.14 kva=75.0
~ wdg=1 bus=80457995002412.1.2.3 conn=delta kv=13.8
~ wdg=2 bus=80457995270886.1.2.3.0 conn=wye kv=0.38

new transformer.UNTRMT_5270887 phases=3 windings=2 %r=1.55 xhl=3.14 kva=75.0
~ wdg=1 bus=80458095002412.1.2.3 conn=delta kv=13.8
~ wdg=2 bus=80458095270887.1.2.3.0 conn=wye kv=0.38

new transformer.UNTRMT_5270888 phases=3 windings=2 %r=1.55 xhl=3.14 kva=75.0
~ wdg=1 bus=80458225002412.1.2.3 conn=delta kv=13.8
~ wdg=2 bus=80458225270888.1.2.3.0 conn=wye kv=0.38

new transformer.UNTRMT_5270889 phases=3 windings=2 %r=1.39 xhl=3.21 kva=150.0
~ wdg=1 bus=80457345002412.1.2.3 conn=delta kv=13.8
~ wdg=2 bus=80457345270889.1.2.3.0 conn=wye kv=0.38

new transformer.UNTRMT_5270891 phases=3 windings=2 %r=1.55 xhl=3.14 kva=75.0
~ wdg=1 bus=80457585002412.1.2.3 conn=delta kv=13.8
~ wdg=2 bus=80457585270891.1.2.3.0 conn=wye kv=0.38

new transformer.UNTRMT_5270892 phases=3 windings=2 %r=1.46 xhl=3.18 kva=112.0
~ wdg=1 bus=80457715002412.1.2.3 conn=delta kv=13.8
~ wdg=2 bus=80457715270892.1.2.3.0 conn=wye kv=0.38

new transformer.UNTRMT_5270893 phases=3 windings=2 %r=1.46 xhl=3.18 kva=112.0
~ wdg=1 bus=80457235002412.1.2.3 conn=delta kv=13.8
~ wdg=2 bus=80457235270893.1.2.3.0 conn=wye kv=0.38

new transformer.UNTRMT_5270894 phases=3 windings=2 %r=1.39 xhl=3.21 kva=150.0
~ wdg=1 bus=80458725002412.1.2.3 conn=delta kv=13.8
~ wdg=2 bus=80458725270894.1.2.3.0 conn=wye kv=0.38

new transformer.UNTRMT_5270895 phases=3 windings=2 %r=1.55 xhl=3.14 kva=75.0
~ wdg=1 bus=79663165002412.1.2.3 conn=delta kv=13.8
~ wdg=2 bus=79663165270895.1.2.3.0 conn=wye kv=0.38

new transformer.UNTRMT_5270896 phases=3 windings=2 %r=1.39 xhl=3.21 kva=150.0
~ wdg=1 bus=80452525002412.1.2.3 conn=delta kv=13.8
~ wdg=2 bus=80452525270896.1.2.3.0 conn=wye kv=0.38

new transformer.UNTRMT_5270897 phases=3 windings=2 %r=1.46 xhl=3.18 kva=112.0
~ wdg=1 bus=80459015002412.1.2.3 conn=delta kv=13.8
~ wdg=2 bus=80459015270897.1.2.3.0 conn=wye kv=0.38

new transformer.UNTRMT_5270898 phases=3 windings=2 %r=1.55 xhl=3.14 kva=75.0
~ wdg=1 bus=80459055002412.1.2.3 conn=delta kv=13.8
~ wdg=2 bus=80459055270898.1.2.3.0 conn=wye kv=0.38

new transformer.UNTRMT_5270899 phases=3 windings=2 %r=1.39 xhl=3.21 kva=150.0
~ wdg=1 bus=80459065002412.1.2.3 conn=delta kv=13.8
~ wdg=2 bus=80459065270899.1.2.3.0 conn=wye kv=0.38

new transformer.UNTRMT_5270901 phases=3 windings=2 %r=1.46 xhl=3.18 kva=112.0
~ wdg=1 bus=80451235002412.1.2.3 conn=delta kv=13.8
~ wdg=2 bus=80451235270901.1.2.3.0 conn=wye kv=0.38

new transformer.UNTRMT_5270902 phases=3 windings=2 %r=1.46 xhl=3.18 kva=112.0
~ wdg=1 bus=80451405002412.1.2.3 conn=delta kv=13.8
~ wdg=2 bus=80451405270902.1.2.3.0 conn=wye kv=0.38

new transformer.UNTRMT_5270903 phases=3 windings=2 %r=1.55 xhl=3.14 kva=75.0
~ wdg=1 bus=80451615002412.1.2.3 conn=delta kv=13.8
~ wdg=2 bus=80451615270903.1.2.3.0 conn=wye kv=0.38

new transformer.UNTRMT_5270904 phases=3 windings=2 %r=1.46 xhl=3.18 kva=112.0
~ wdg=1 bus=80451825002412.1.2.3 conn=delta kv=13.8
~ wdg=2 bus=80451825270904.1.2.3.0 conn=wye kv=0.38

new transformer.UNTRMT_5270905 phases=3 windings=2 %r=1.68 xhl=3.07 kva=45.0
~ wdg=1 bus=80451855002412.1.2.3 conn=delta kv=13.8
~ wdg=2 bus=80451855270905.1.2.3.0 conn=wye kv=0.38

new transformer.UNTRMT_5270906 phases=3 windings=2 %r=1.68 xhl=3.07 kva=45.0
~ wdg=1 bus=80451835002412.1.2.3 conn=delta kv=13.8
~ wdg=2 bus=80451835270906.1.2.3.0 conn=wye kv=0.38

new transformer.UNTRMT_5270907 phases=3 windings=2 %r=1.39 xhl=3.21 kva=150.0
~ wdg=1 bus=80451905002412.1.2.3 conn=delta kv=13.8
~ wdg=2 bus=80451905270907.1.2.3.0 conn=wye kv=0.38

new transformer.UNTRMT_5270908 phases=3 windings=2 %r=1.46 xhl=3.18 kva=112.0
~ wdg=1 bus=80452025002412.1.2.3 conn=delta kv=13.8
~ wdg=2 bus=80452025270908.1.2.3.0 conn=wye kv=0.38

new transformer.UNTRMT_5270909 phases=3 windings=2 %r=1.46 xhl=3.18 kva=112.0
~ wdg=1 bus=80452035002412.1.2.3 conn=delta kv=13.8
~ wdg=2 bus=80452035270909.1.2.3.0 conn=wye kv=0.38

new transformer.UNTRMT_5270911 phases=3 windings=2 %r=1.46 xhl=3.18 kva=112.0
~ wdg=1 bus=80454745002412.1.2.3 conn=delta kv=13.8
~ wdg=2 bus=80454745270911.1.2.3.0 conn=wye kv=0.38

new transformer.UNTRMT_5270942 phases=3 windings=2 %r=1.39 xhl=3.21 kva=150.0
~ wdg=1 bus=80466095002412.1.2.3 conn=delta kv=13.8
~ wdg=2 bus=80466095270942.1.2.3.0 conn=wye kv=0.38

new transformer.UNTRMT_5270950 phases=3 windings=2 %r=1.68 xhl=3.07 kva=45.0
~ wdg=1 bus=80460795002412.1.2.3 conn=delta kv=13.8
~ wdg=2 bus=80460795270950.1.2.3.0 conn=wye kv=0.38

new transformer.UNTRMT_5270953 phases=3 windings=2 %r=1.55 xhl=3.14 kva=75.0
~ wdg=1 bus=80460995002412.1.2.3 conn=delta kv=13.8
~ wdg=2 bus=80460995270953.1.2.3.0 conn=wye kv=0.38

new transformer.UNTRMT_5270960 phases=3 windings=2 %r=1.55 xhl=3.14 kva=75.0
~ wdg=1 bus=80466175002412.1.2.3 conn=delta kv=13.8
~ wdg=2 bus=80466175270960.1.2.3.0 conn=wye kv=0.38

new transformer.UNTRMT_5270961 phases=3 windings=2 %r=1.3 xhl=4.31 kva=112.0
~ wdg=1 bus=80466185002412.1.2.3 conn=delta kv=13.8
~ wdg=2 bus=80466185270961.1.2.3.0 conn=wye kv=0.38

new transformer.UNTRMT_5270962 phases=3 windings=2 %r=1.39 xhl=3.21 kva=150.0
~ wdg=1 bus=80458805002412.1.2.3 conn=delta kv=13.8
~ wdg=2 bus=80458805270962.1.2.3.0 conn=wye kv=0.38

new transformer.UNTRMT_5271913 phases=3 windings=2 %r=1.55 xhl=3.14 kva=75.0
~ wdg=1 bus=80531745002412.1.2.3 conn=delta kv=13.8
~ wdg=2 bus=80531745271913.1.2.3.0 conn=wye kv=0.38

new transformer.UNTRMT_5271917 phases=3 windings=2 %r=1.46 xhl=3.18 kva=112.0
~ wdg=1 bus=80532185002412.1.2.3 conn=delta kv=13.8
~ wdg=2 bus=80532185271917.1.2.3.0 conn=wye kv=0.38

new transformer.UNTRMT_5271983 phases=3 windings=2 %r=1.46 xhl=3.18 kva=112.0
~ wdg=1 bus=80531105002412.1.2.3 conn=delta kv=13.8
~ wdg=2 bus=80531105271983.1.2.3.0 conn=wye kv=0.38

new transformer.UNTRMT_5271984 phases=3 windings=2 %r=1.46 xhl=3.18 kva=112.0
~ wdg=1 bus=80531715002412.1.2.3 conn=delta kv=13.8
~ wdg=2 bus=80531715271984.1.2.3.0 conn=wye kv=0.38

new transformer.UNTRMT_5271985 phases=3 windings=2 %r=1.46 xhl=3.18 kva=112.0
~ wdg=1 bus=80531935002412.1.2.3 conn=delta kv=13.8
~ wdg=2 bus=80531935271985.1.2.3.0 conn=wye kv=0.38

new transformer.UNTRMT_5271986 phases=3 windings=2 %r=1.55 xhl=3.14 kva=75.0
~ wdg=1 bus=80532015002412.1.2.3 conn=delta kv=13.8
~ wdg=2 bus=80532015271986.1.2.3.0 conn=wye kv=0.38

new transformer.UNTRMT_5271987 phases=3 windings=2 %r=1.68 xhl=3.07 kva=45.0
~ wdg=1 bus=80532195002412.1.2.3 conn=delta kv=13.8
~ wdg=2 bus=80532195271987.1.2.3.0 conn=wye kv=0.38

new transformer.UNTRMT_5271988 phases=3 windings=2 %r=1.68 xhl=3.07 kva=45.0
~ wdg=1 bus=80532205002412.1.2.3 conn=delta kv=13.8
~ wdg=2 bus=80532205271988.1.2.3.0 conn=wye kv=0.38

new transformer.UNTRMT_5271989 phases=3 windings=2 %r=1.55 xhl=3.14 kva=75.0
~ wdg=1 bus=80530795002412.1.2.3 conn=delta kv=13.8
~ wdg=2 bus=80530795271989.1.2.3.0 conn=wye kv=0.38

new transformer.UNTRMT_5271990 phases=3 windings=2 %r=1.68 xhl=3.07 kva=45.0
~ wdg=1 bus=80531405002412.1.2.3 conn=delta kv=13.8
~ wdg=2 bus=80531405271990.1.2.3.0 conn=wye kv=0.38

new transformer.UNTRMT_5271991 phases=3 windings=2 %r=1.46 xhl=3.18 kva=112.0
~ wdg=1 bus=80531445002412.1.2.3 conn=delta kv=13.8
~ wdg=2 bus=80531445271991.1.2.3.0 conn=wye kv=0.38

new transformer.UNTRMT_5271992 phases=3 windings=2 %r=1.55 xhl=3.14 kva=75.0
~ wdg=1 bus=80531495002412.1.2.3 conn=delta kv=13.8
~ wdg=2 bus=80531495271992.1.2.3.0 conn=wye kv=0.38

new transformer.UNTRMT_5271993 phases=3 windings=2 %r=1.55 xhl=3.14 kva=75.0
~ wdg=1 bus=80531545002412.1.2.3 conn=delta kv=13.8
~ wdg=2 bus=80531545271993.1.2.3.0 conn=wye kv=0.38

new transformer.UNTRMT_5271994 phases=3 windings=2 %r=1.55 xhl=3.14 kva=75.0
~ wdg=1 bus=80530985002412.1.2.3 conn=delta kv=13.8
~ wdg=2 bus=80530985271994.1.2.3.0 conn=wye kv=0.38

new transformer.UNTRMT_5272013 phases=3 windings=2 %r=1.39 xhl=3.21 kva=150.0
~ wdg=1 bus=80452385002412.1.2.3 conn=delta kv=13.8
~ wdg=2 bus=80452385272013.1.2.3.0 conn=wye kv=0.38

new transformer.UNTRMT_5272040 phases=3 windings=2 %r=1.68 xhl=3.07 kva=45.0
~ wdg=1 bus=80537605002412.1.2.3 conn=delta kv=13.8
~ wdg=2 bus=80537605272040.1.2.3.0 conn=wye kv=0.38

new transformer.UNTRMT_5284008 phases=3 windings=2 %r=1.68 xhl=3.07 kva=45.0
~ wdg=1 bus=80451065002412.1.2.3 conn=delta kv=13.8
~ wdg=2 bus=80451065284008.1.2.3.0 conn=wye kv=0.38

new transformer.UNTRMT_5299172 phases=3 windings=2 %r=1.46 xhl=3.18 kva=112.0
~ wdg=1 bus=80540155002412.1.2.3 conn=delta kv=13.8
~ wdg=2 bus=80540155299172.1.2.3.0 conn=wye kv=0.38

new transformer.UNTRMT_5310302 phases=3 windings=2 %r=1.46 xhl=3.18 kva=112.0
~ wdg=1 bus=83690975002412.1.2.3 conn=delta kv=13.8
~ wdg=2 bus=83690975310302.1.2.3.0 conn=wye kv=0.38

new transformer.UNTRMT_5325778 phases=3 windings=2 %r=1.55 xhl=3.14 kva=75.0
~ wdg=1 bus=84632685002412.1.2.3 conn=delta kv=13.8
~ wdg=2 bus=84632685325778.1.2.3.0 conn=wye kv=0.38

new transformer.UNTRMT_5325933 phases=3 windings=2 %r=1.55 xhl=3.14 kva=75.0
~ wdg=1 bus=80450355002412.1.2.3 conn=delta kv=13.8
~ wdg=2 bus=80450355325933.1.2.3.0 conn=wye kv=0.38

new transformer.UNTRMT_5335323 phases=3 windings=2 %r=1.3 xhl=4.31 kva=112.0
~ wdg=1 bus=85353535002412.1.2.3 conn=delta kv=13.8
~ wdg=2 bus=85353535335323.1.2.3.0 conn=wye kv=0.38

new transformer.UNTRMT_5344640 phases=3 windings=2 %r=1.3 xhl=4.31 kva=75.0
~ wdg=1 bus=86001745002412.1.2.3 conn=delta kv=13.8
~ wdg=2 bus=86001745344640-411.1.2.3.0 conn=wye kv=0.38

new transformer.UNTRMT_5434472 phases=3 windings=2 %r=1.39 xhl=3.21 kva=150.0
~ wdg=1 bus=86458555002412.1.2.3 conn=delta kv=13.8
~ wdg=2 bus=86458555434472.1.2.3.0 conn=wye kv=0.38

new transformer.UNTRMT_5447911 phases=3 windings=2 %r=1.68 xhl=3.07 kva=45.0
~ wdg=1 bus=80459155002412.1.2.3 conn=delta kv=13.8
~ wdg=2 bus=80459155447911.1.2.3.0 conn=wye kv=0.38

new transformer.UNTRMT_5450465 phases=3 windings=2 %r=1.3 xhl=4.31 kva=225.0
~ wdg=1 bus=87149355002412.1.2.3 conn=delta kv=13.8
~ wdg=2 bus=87149355450465.1.2.3.0 conn=wye kv=0.38

new transformer.UNTRMT_5455881 phases=3 windings=2 %r=1.3 xhl=4.31 kva=225.0
~ wdg=1 bus=87328375002412.1.2.3 conn=delta kv=13.8
~ wdg=2 bus=87328375455881.1.2.3.0 conn=wye kv=0.38

new transformer.UNTRMT_5458967 phases=3 windings=2 %r=1.25 xhl=4.32 kva=300.0
~ wdg=1 bus=87418705002412.1.2.3 conn=delta kv=13.8
~ wdg=2 bus=87418705458967.1.2.3.0 conn=wye kv=0.38

new transformer.UNTRMT_5486726 phases=3 windings=2 %r=1.25 xhl=4.32 kva=300.0
~ wdg=1 bus=88152115002412.1.2.3 conn=delta kv=13.8
~ wdg=2 bus=88152115486726.1.2.3.0 conn=wye kv=0.38

new transformer.UNTRMT_5498851 phases=3 windings=2 %r=1.46 xhl=3.18 kva=112.0
~ wdg=1 bus=88519835002412.1.2.3 conn=delta kv=13.8
~ wdg=2 bus=88519835498851.1.2.3.0 conn=wye kv=0.38

new transformer.UNTRMT_5501474 phases=3 windings=2 %r=1.68 xhl=3.07 kva=45.0
~ wdg=1 bus=88587265002412.1.2.3 conn=delta kv=13.8
~ wdg=2 bus=88587265501474.1.2.3.0 conn=wye kv=0.38

new transformer.UNTRMT_5529362 phases=3 windings=2 %r=1.3 xhl=4.31 kva=225.0
~ wdg=1 bus=89475775002412.1.2.3 conn=delta kv=13.8
~ wdg=2 bus=89475775529362.1.2.3.0 conn=wye kv=0.38

new transformer.UNTRMT_5533700 phases=3 windings=2 %r=1.25 xhl=4.32 kva=300.0
~ wdg=1 bus=89615015002412.1.2.3 conn=delta kv=13.8
~ wdg=2 bus=89615015533700.1.2.3.0 conn=wye kv=0.38

new transformer.UNTRMT_5556503 phases=3 windings=2 %r=1.3 xhl=4.31 kva=225.0
~ wdg=1 bus=90318625002412.1.2.3 conn=delta kv=13.8
~ wdg=2 bus=90318625556503.1.2.3.0 conn=wye kv=0.38

new transformer.UNTRMT_5560138 phases=3 windings=2 %r=1.55 xhl=3.14 kva=75.0
~ wdg=1 bus=80458845002412.1.2.3 conn=delta kv=13.8
~ wdg=2 bus=80458845560138.1.2.3.0 conn=wye kv=0.38

new transformer.UNTRMT_5566495 phases=3 windings=2 %r=1.25 xhl=4.32 kva=300.0
~ wdg=1 bus=91681395002412.1.2.3 conn=delta kv=13.8
~ wdg=2 bus=91681395566495.1.2.3.0 conn=wye kv=0.38

new transformer.UNTRMT_5573742 phases=3 windings=2 %r=1.25 xhl=4.32 kva=300.0
~ wdg=1 bus=93755225002412.1.2.3 conn=delta kv=13.8
~ wdg=2 bus=93755225573742.1.2.3.0 conn=wye kv=0.38

new transformer.UNTRMT_5577462 phases=3 windings=2 %r=1.46 xhl=3.18 kva=112.0
~ wdg=1 bus=80448565002412.1.2.3 conn=delta kv=13.8
~ wdg=2 bus=80448565577462.1.2.3.0 conn=wye kv=0.38

new transformer.UNTRMT_5579625 phases=3 windings=2 %r=1.25 xhl=4.32 kva=300.0
~ wdg=1 bus=90987855002412.1.2.3 conn=delta kv=13.8
~ wdg=2 bus=90987855579625.1.2.3.0 conn=wye kv=0.38

new transformer.UNTRMT_5580100 phases=3 windings=2 %r=1.3 xhl=4.31 kva=225.0
~ wdg=1 bus=91010235002412.1.2.3 conn=delta kv=13.8
~ wdg=2 bus=91010235580100.1.2.3.0 conn=wye kv=0.38

new transformer.UNTRMT_5580102 phases=3 windings=2 %r=1.25 xhl=4.32 kva=300.0
~ wdg=1 bus=91010295002412.1.2.3 conn=delta kv=13.8
~ wdg=2 bus=91010295580102.1.2.3.0 conn=wye kv=0.38

new transformer.UNTRMT_5586861 phases=3 windings=2 %r=1.3 xhl=4.31 kva=225.0
~ wdg=1 bus=91186205002412.1.2.3 conn=delta kv=13.8
~ wdg=2 bus=91186205586861.1.2.3.0 conn=wye kv=0.38

new transformer.UNTRMT_5592876 phases=3 windings=2 %r=1.25 xhl=4.32 kva=300.0
~ wdg=1 bus=93762645002412.1.2.3 conn=delta kv=13.8
~ wdg=2 bus=93762645592876.1.2.3.0 conn=wye kv=0.38

new transformer.UNTRMT_5594379 phases=3 windings=2 %r=1.46 xhl=3.18 kva=112.0
~ wdg=1 bus=91543725002412.1.2.3 conn=delta kv=13.8
~ wdg=2 bus=91543725594379.1.2.3.0 conn=wye kv=0.38

new transformer.UNTRMT_5600068 phases=3 windings=2 %r=1.46 xhl=3.18 kva=112.0
~ wdg=1 bus=80452405002412.1.2.3 conn=delta kv=13.8
~ wdg=2 bus=80452405600068.1.2.3.0 conn=wye kv=0.38

new transformer.UNTRMT_5606452 phases=3 windings=2 %r=1.25 xhl=4.32 kva=300.0
~ wdg=1 bus=91981885002412.1.2.3 conn=delta kv=13.8
~ wdg=2 bus=91981885606452.1.2.3.0 conn=wye kv=0.38

new transformer.UNTRMT_5611407 phases=3 windings=2 %r=1.25 xhl=4.32 kva=300.0
~ wdg=1 bus=92071955002412.1.2.3 conn=delta kv=13.8
~ wdg=2 bus=92071955611407.1.2.3.0 conn=wye kv=0.38

new transformer.UNTRMT_5624424 phases=3 windings=2 %r=1.46 xhl=3.18 kva=112.0
~ wdg=1 bus=92369985002412.1.2.3 conn=delta kv=13.8
~ wdg=2 bus=92369985624424.1.2.3.0 conn=wye kv=0.38

new transformer.UNTRMT_5628978 phases=3 windings=2 %r=1.25 xhl=4.32 kva=300.0
~ wdg=1 bus=93762635002412.1.2.3 conn=delta kv=13.8
~ wdg=2 bus=93762635628978.1.2.3.0 conn=wye kv=0.38

new transformer.UNTRMT_5641465 phases=3 windings=2 %r=1.25 xhl=4.32 kva=300.0
~ wdg=1 bus=92895125002412.1.2.3 conn=delta kv=13.8
~ wdg=2 bus=92895125641465.1.2.3.0 conn=wye kv=0.38

new transformer.UNTRMT_5696454 phases=3 windings=2 %r=1.25 xhl=4.32 kva=300.0
~ wdg=1 bus=94463945002412.1.2.3 conn=delta kv=13.8
~ wdg=2 bus=94463945696454.1.2.3.0 conn=wye kv=0.38

new transformer.UNTRMT_5706400 phases=3 windings=2 %r=1.15 xhl=5.89 kva=500.0
~ wdg=1 bus=94660185002412.1.2.3 conn=delta kv=13.8
~ wdg=2 bus=94660185706400.1.2.3.0 conn=wye kv=0.38

new transformer.UNTRMT_5718345 phases=3 windings=2 %r=1.46 xhl=3.18 kva=112.0
~ wdg=1 bus=95019675002412.1.2.3 conn=delta kv=13.8
~ wdg=2 bus=95019675718345.1.2.3.0 conn=wye kv=0.38

new transformer.UNTRMT_5743225 phases=3 windings=2 %r=1.25 xhl=4.32 kva=300.0
~ wdg=1 bus=96156705002412.1.2.3 conn=delta kv=13.8
~ wdg=2 bus=96156705743225.1.2.3.0 conn=wye kv=0.38

new transformer.UNTRMT_5749617 phases=3 windings=2 %r=1.15 xhl=5.89 kva=500.0
~ wdg=1 bus=90137775002412.1.2.3 conn=delta kv=13.8
~ wdg=2 bus=90137775749617.1.2.3.0 conn=wye kv=0.38

new transformer.UNTRMT_5752717 phases=3 windings=2 %r=1.25 xhl=4.32 kva=300.0
~ wdg=1 bus=80458025002412.1.2.3 conn=delta kv=13.8
~ wdg=2 bus=80458025752717.1.2.3.0 conn=wye kv=0.38

new transformer.UNTRMT_5778079 phases=3 windings=2 %r=1.25 xhl=4.32 kva=300.0
~ wdg=1 bus=80457215002412.1.2.3 conn=delta kv=13.8
~ wdg=2 bus=80457215778079.1.2.3.0 conn=wye kv=0.38

new transformer.UNTRMT_5778080 phases=3 windings=2 %r=1.25 xhl=4.32 kva=300.0
~ wdg=1 bus=97665745002412.1.2.3 conn=delta kv=13.8
~ wdg=2 bus=97665745778080.1.2.3.0 conn=wye kv=0.38

new transformer.UNTRMT_5782546 phases=3 windings=2 %r=1.15 xhl=5.89 kva=500.0
~ wdg=1 bus=97871985002412.1.2.3 conn=delta kv=13.8
~ wdg=2 bus=97871985782546.1.2.3.0 conn=wye kv=0.38

new transformer.UNTRMT_5801614 phases=3 windings=2 %r=1.39 xhl=3.21 kva=150.0
~ wdg=1 bus=98915615002412.1.2.3 conn=delta kv=13.8
~ wdg=2 bus=98915615801614.1.2.3.0 conn=wye kv=0.38

...